FoamFile
{
    version     2.0;
    format      ascii;
    class       dictionary;
    object      radiationProperties;
}

radiation          on;

radiationModel     viewFactor;

viewFactorCoeffs
{
    smoothing           true;
    constantEmissivity  true;
    nBands              1;
    useDirectSolver     false;
}

solverFreq  1;

absorptionEmissionModel constantAbsorptionEmission;

constantAbsorptionEmissionCoeffs
{
    absorptivity absorptivity [0 -1 0 0 0 0 0] 0;
    emissivity   emissivity   [0 -1 0 0 0 0 0] 0;
    E            E            [1 -1 -3 0 0 0 0] 0;
}

scatterModel none;

sootModel none;
