FoamFile
{
    version     2.0;
    format      ascii;
    class       dictionary;
    object      thermophysicalProperties;
}

thermoType
{
    type            heSolidThermo;
    mixture         pureMixture;
    transport         const;
    thermo            hConst;
    equationOfState   rhoConst;
    specie            specie;
    energy            sensibleEnthalpy;
}

mixture
{
    specie
    {
        molWeight   50;
    }
    equationOfState
    {
        rho         1850;
    }
    thermodynamics
    {
        Cp          1200;
        Hf          0;
    }
    transport
    {
        kappa       0.3;
    }
}
