FoamFile
{
    version     2.0;
    format      ascii;
    class       dictionary;
    object      thermophysicalProperties;
}

thermoType
{
    type            heSolidThermo;
    mixture         pureMixture;
    transport         const;
    thermo            hConst;
    equationOfState   rhoConst;
    specie            specie;
    energy            sensibleEnthalpy;
}

mixture
{
    specie
    {
        molWeight   18;
    }
    equationOfState
    {
        rho         2700;
    }
    thermodynamics
    {
        Cp          900;
        Hf          0;
    }
    transport
    {
        kappa       20000;
    }
}
